*SOILS: General DSSAT Soil Input File
*AGSP209115  EUROFINS    SIC      120  ALFALFA, HYDRANT 209b
@SITE        COUNTRY          LAT     LONG SCS FAMILY
 LA VIOLADA  SPAIN             41        0 PETROCALCIC CALCIXEREPT
@ SCOM  SALB  SLU1  SLDR  SLRO  SLNF  SLPF  SMHB  SMPX  SMKE
     G   .13     6    .6    73     1     1 IB001 IB001 IB001
@  SLB  SLMH  SLLL  SDUL  SSAT  SRGF  SSKS  SBDM  SLOC  SLCL  SLSI  SLCF  SLNI  SLHW  SLHB  SCEC  SADC
    30   -99  .117  .433  .497     1   .09   1.5   1.8  42.9    51   -99   -99     8   -99    16   -99
    60   -99   .22  .449  .553  .407   .68   1.5    .5   6.4    70   -99   -99     8   -99    13   -99
    90   -99  .219   .47  .507  .223   .68   1.5    .8  24.4    60   -99   -99     8   -99    11   -99
   120   -99  .223  .464  .546  .122   .68   1.4    .4   5.5    67   -99   -99     8   -99    14   -99

*BRPA080004  UFRA        C        300  Oxisol
@SITE        COUNTRY          LAT     LONG SCS FAMILY
 Paragominas Brazil            -3      -47     Oxisols
@ SCOM  SALB  SLU1  SLDR  SLRO  SLNF  SLPF  SMHB  SMPX  SMKE
     Y   .17     6    .4    73     1     1 IB001 IB001 IB001
@  SLB  SLMH  SLLL  SDUL  SSAT  SRGF  SSKS  SBDM  SLOC  SLCL  SLSI  SLCF  SLNI  SLHW  SLHB  SCEC  SADC
     5   -99   .24  .488  .582     1    .5  1.02    .9    77  12.4   -99   .08   5.8   -99   7.9   -99
    15   -99   .25  .455  .553     1    .5  1.09    .9    78  12.7   -99   .08   5.8   -99   7.9   -99
    30   -99  .301  .457  .502   .42    .5   1.3    .7  84.1  11.4   -99   .06   5.5   -99   7.5   -99
    40   -99  .307  .434  .489   .34    .5  1.32    .3  84.3  12.1   -99   .03   4.9   -99   6.4   -99
    50   -99  .307  .434  .489   .23    .5  1.32    .3  84.3  12.1   -99   .03   4.9   -99   6.4   -99
    60   -99  .307  .434  .489    .2    .5  1.32    .3  84.3  12.1   -99   .03   4.9   -99   6.4   -99
    70   -99  .307  .434  .489   .18    .5  1.32    .3  84.3  12.1   -99   .03   4.9   -99   6.4   -99
   100   -99  .307  .434  .489   .16    .5  1.32    .3  84.3  12.1   -99   .03   4.9   -99   6.4   -99
   125   -99  .307  .434  .489   .04    .5  1.32    .2  84.3  12.1   -99   .02   4.9   -99   5.4   -99
   150   -99  .307  .434  .489   .04    .5  1.32    .2  84.3  12.1   -99   .02   4.9   -99   5.4   -99
   160   -99  .307  .434  .489     0    .5  1.32    .2  84.3  12.1   -99   .02   4.9   -99   5.4   -99
   300   -99  .307  .434  .489     0    .5  1.32    .2  84.3  12.1   -99   .02   4.9   -99   5.4   -99
@  SLB  SLPX  SLPT  SLPO CACO3  SLAL  SLFE  SLMN  SLBS  SLPA  SLPB  SLKE  SLMG  SLNA  SLSU  SLEC  SLCA
     5   -99   -99   -99   -99     0   -99   -99   -99   -99   -99    .1   -99   -99   -99   -99   3.9
    15   -99   -99   -99   -99     0   -99   -99   -99   -99   -99    .1   -99   -99   -99   -99   3.9
    30   -99   -99   -99   -99     0   -99   -99   -99   -99   -99    .1   -99   -99   -99   -99   3.9
    40   -99   -99   -99   -99     0   -99   -99   -99   -99   -99    .1   -99   -99   -99   -99   3.9
    50   -99   -99   -99   -99     0   -99   -99   -99   -99   -99    .1   -99   -99   -99   -99   2.9
    60   -99   -99   -99   -99     0   -99   -99   -99   -99   -99    .1   -99   -99   -99   -99   2.9
    70   -99   -99   -99   -99    .2   -99   -99   -99   -99   -99    .1   -99   -99   -99   -99   1.8
   100   -99   -99   -99   -99    .2   -99   -99   -99   -99   -99    .1   -99   -99   -99   -99   1.8
   125   -99   -99   -99   -99    .3   -99   -99   -99   -99   -99    .1   -99   -99   -99   -99   1.2
   150   -99   -99   -99   -99    .3   -99   -99   -99   -99   -99    .1   -99   -99   -99   -99   1.2
   160   -99   -99   -99   -99    .3   -99   -99   -99   -99   -99    .1   -99   -99   -99   -99   1.2
*CORD860001  SPAIN       SALO    195 DEFAULT - DEEP SANDY LOAM
@SITE        COUNTRY          LAT     LONG SCS FAMILY
 Generic     Generic          -99      -99 Generic
@ SCOM  SALB  SLU1  SLDR  SLRO  SLNF  SLPF  SMHB  SMPX  SMKE
   -99  0.21   6.0  0.60  60.0  1.00  1.00 IB001 IB001 IB001
! DRY ALBEDO IS 0.26,  WET ALBEDO IS 0.16, SOIL IS WHITE
! F. SAU, CALIBRATED DUL, LL, AGAINST OBSERVED SOIL WATER DATA, CUT LAST LAYER
@  SLB  SLMH  SLLL  SDUL  SSAT  SRGF  SSKS  SBDM  SLOC  SLCL  SLSI  SLCF  SLNI  SLHW  SLHB  SCEC
     5   -99  .070  .270  .390 1.000   -99  1.61  0.70    10    30     0  .070   7.1   -99   -99
    15   -99  .070  .270  .390 1.000   -99  1.61  0.70    10    30     0  .070   7.1   -99   -99
    45   -99  .070  .250  .350 0.600   -99  1.61  0.58    10    30     0  .058   7.1   -99   -99
    75   -99  .070  .220  .320 0.300   -99  1.61  0.58    10    30     0  .058   7.1   -99   -99
   105   -99  .070  .200  .300 0.220   -99  1.61  0.43    10    30     0  .043   7.1   -99   -99
   135   -99  .070  .195  .285 0.220   -99  1.62  0.26    10    30     0  .026   7.1   -99   -99
   165   -99  .070  .180  .280 0.220   -99  1.62  0.12    10    30     0  .012   7.1   -99   -99
   195   -99  .070  .220  .310 0.220   -99  1.62  0.04    10    30     0  .004   7.1   -99   -99

*ET04197341    ETH    ClayLoam   200    ISRIC soilgrids + HC27
@SITE        COUNTRY          LAT     LONG SCS Family
 -99              ET        9.042   38.458     HC_GEN0011
@ SCOM  SALB  SLU1  SLDR  SLRO  SLNF  SLPF  SMHB  SMPX  SMKE
    BK  0.10  6.00  0.50 75.00  1.00  1.00 SA001 SA001 SA001
@  SLB  SLMH  SLLL  SDUL  SSAT  SRGF  SSKS  SBDM  SLOC  SLCL  SLSI  SLCF  SLNI  SLHW  SLHB  SCEC  SADC
     5 A     0.233 0.355 0.436  1.00  0.14  1.08  1.40 38.96 22.53 -99.0  0.12  6.22 -99.0  34.6 -99.0
    15 A     0.244 0.367 0.442  0.85  0.11  1.10  0.87 40.89 21.77 -99.0  0.09  6.29 -99.0  30.3 -99.0
    30 AB    0.259 0.383 0.451  0.70  0.08  1.13  0.69 43.46 20.73 -99.0  0.07  6.38 -99.0  29.4 -99.0
    60 BA    0.271 0.396 0.459  0.50  0.06  1.18  0.63 45.62 19.70 -99.0  0.06  6.50 -99.0  30.7 -99.0
   100 B     0.272 0.396 0.458  0.38  0.06  1.24  0.61 45.65 19.05 -99.0  0.05  6.64 -99.0  30.9 -99.0
   200 BC    0.263 0.386 0.451  0.05  0.07  1.30  0.60 44.13 18.83 -99.0  0.05  6.82 -99.0  30.8 -99.0

*GAGI810014  Perkinsetal LS      183 Tifton loamy sand
@SITE        COUNTRY          LAT     LONG SCS FAMILY
 GibbsFarm   USA           31.430  -83.580 Fine-loamy,siliceous,thermic Plinthic Paleudults
@ SCOM  SALB  SLU1  SLDR  SLRO  SLNF  SLPF  SMHB  SMPX  SMKE
    BN  0.13   7.3  0.60  76.0  1.00  0.93 IB001 IB001 IB001
@  SLB  SLMH  SLLL  SDUL  SSAT  SRGF  SSKS  SBDM  SLOC  SLCL  SLSI  SLCF  SLNI  SLHW  SLHB  SCEC  SADC
    30   Apc 0.067 0.141 0.323 1.000  5.36  1.73  0.74   4.2  10.9   0.0   -99   5.9   -99   2.5   -99
    51  Btc1 0.148 0.241 0.309 0.700  7.06  1.76  1.08  18.6  11.9   0.0   -99   4.8   -99   3.2   -99
    76  Btc2 0.192 0.276 0.384 0.500  3.59  1.57  0.34  31.3  12.9   0.0   -99   5.1   -99   3.8   -99
   104  Btv1 0.194 0.278 0.314 0.300  0.11  1.77  0.19  32.6  13.9   0.0   -99   4.9   -99   4.5   -99
   135  Btv2 0.177 0.263 0.302 0.200  0.03  1.80  0.25  28.8  15.6   0.0   -99   4.8   -99   3.9   -99
   183    Bt 0.190 0.273 0.329 0.100  0.03  1.73  0.04  32.5  15.6   0.0   -99   4.6   -99   4.4   -99
@  SLB  SLPX  SLPT  SLPO  SLCA  SLAL  SLFE  SLMN  SLBS  SLPA  SLPB  SLKE  SLMG  SLNA  SLSU  SLEC
    30   -99   -99   -99   -99    .0   -99   -99   -99   -99   -99    .1   -99   -99   -99   -99
    51   -99   -99   -99   -99    .3   -99   -99   -99   -99   -99    .2   -99   -99   -99   -99
    76   -99   -99   -99   -99    .1   -99   -99   -99   -99   -99    .2   -99   -99   -99   -99
   104   -99   -99   -99   -99    .2   -99   -99   -99   -99   -99    .1   -99   -99   -99   -99
   135   -99   -99   -99   -99    .7   -99   -99   -99   -99   -99    .1   -99   -99   -99   -99
   183   -99   -99   -99   -99   1.4   -99   -99   -99   -99   -99    .0   -99   -99   -99   -99

!*GAGI810114  Perkinsetal LS      183 Tifton loamy sand (original)
!@SITE        COUNTRY          LAT     LONG SCS FAMILY
! GibbsFarm   USA            31.430 -83.580 Fine-loamy,siliceous,thermic Plinthic Paleudults
!@ SCOM  SALB  SLU1  SLDR  SLRO  SLNF  SLPF  SMHB  SMPX  SMKE
!    BN  0.13   7.3  0.60  76.0  1.00  0.90 IB001 IB001 IB001
!@  SLB  SLMH  SLLL  SDUL  SSAT  SRGF  SSKS  SBDM  SLOC  SLCL  SLSI  SLCF  SLNI  SLHW  SLHB  SCEC  SADC
!    30   Apc 0.020 0.053 0.301 1.000  5.36  1.73  0.74   4.2  10.9  24.0   -99   5.9   -99   2.5   -99
!    51  Btc1 0.068 0.119 0.345 1.000  7.06  1.76  1.08  18.6  11.9  38.0   -99   4.8   -99   3.2   -99
!    76  Btc2 0.118 0.174 0.372 0.500  3.59  1.57  0.34  31.3  12.9  27.0   -99   5.1   -99   3.8   -99
!   104  Btv1 0.135 0.196 0.399 0.300  0.11  1.77  0.19  32.6  13.9   6.0   -99   4.9   -99   4.5   -99
!   135  Btv2 0.129 0.194 0.344 0.200  0.03  1.80  0.25  28.8  15.6  12.0   -99   4.8   -99   3.9   -99
!   183    Bt 0.134 0.205 0.344 0.000  0.03  1.73  0.04  32.5  15.6   7.0   -99   4.6   -99   4.4   -99
!@  SLB  SLPX  SLPT  SLPO  SLCA  SLAL  SLFE  SLMN  SLBS  SLPA  SLPB  SLKE  SLMG  SLNA  SLSU  SLEC
!    30   -99   -99   -99   -99    .0   -99   -99   -99   -99   -99    .1   -99   -99   -99   -99
!    51   -99   -99   -99   -99    .3   -99   -99   -99   -99   -99    .2   -99   -99   -99   -99
!    76   -99   -99   -99   -99    .1   -99   -99   -99   -99   -99    .2   -99   -99   -99   -99
!   104   -99   -99   -99   -99    .2   -99   -99   -99   -99   -99    .1   -99   -99   -99   -99
!   135   -99   -99   -99   -99    .7   -99   -99   -99   -99   -99    .1   -99   -99   -99   -99
!   183   -99   -99   -99   -99   1.4   -99   -99   -99   -99   -99    .0   -99   -99   -99   -99

!K. J. Boote added 0.1 for SRGF to layers to 165 cm (to mimic deep rooting, like NCEP)
*GH00970001  Naab site1D1 SALO     90 SAVANNA OCHROSOL
@SITE        COUNTRY          LAT     LONG SCS FAMILY
 NYANKPALA   GHANA          9.416    0.966 PALEUSTALF
@ SCOM  SALB  SLU1  SLDR  SLRO  SLNF  SLPF  SMHB  SMPX  SMKE
 BN     0.13   6.0  0.40    76  1.00  0.84 IB001 IB001 IB001
@  SLB SLMH   SLLL  SDUL  SSAT  SRGF  SSKS  SBDM  SLOC  SLCL  SLSI  SLCF  SLNI  SLHW  SLHB  SCEC
     5 AP    0.095 0.257 0.359  1.00 -99.0  1.39  0.41   7.0  18.2   6.2   -99   6.7 -99.0 -99.0
    15 AP    0.060 0.227 0.359  1.00 -99.0  1.39  0.41   7.0  18.2   6.2   -99   6.7 -99.0 -99.0
    30 B1    0.060 0.228 0.340  0.70 -99.0  1.59  0.32  11.3  24.5  11.4   -99   6.4 -99.0 -99.0
    45 B2    0.105 0.229 0.342  0.35 -99.0  1.59  0.28  15.0  27.9  47.1   -99   6.1 -99.0 -99.0
    60 B3    0.120 0.205 0.342  0.25 -99.0  1.63  0.28  15.5  27.5  47.1   -99   6.1 -99.0 -99.0
    90 B3    0.130 0.200 0.347  0.05 -99.0  1.45  0.17  18.2  27.7  47.5   -99   6.0 -99.0 -99.0
!   113 B3    0.130 0.197 0.347  0.02 -99.0  1.45  0.17  18.2  27.7  47.5   -99   6.0 -99.0 -99.0

*GHWA040001  unknown     LS       90 Loamy Silt
@SITE        COUNTRY          LAT     LONG SCS FAMILY
 Wa          Ghana         10.005   -2.496 unknown
@ SCOM  SALB  SLU1  SLDR  SLRO  SLNF  SLPF  SMHB  SMPX  SMKE
    BN  0.13   6.0  0.60  73.0  1.00  1.00 IB001 SA002 IB001
@  SLB  SLMH  SLLL  SDUL  SSAT  SRGF  SSKS  SBDM  SLOC  SLCL  SLSI  SLCF  SLNI  SLHW  SLHB  SCEC  SADC
     5     A 0.085 0.155 0.383 1.000  2.59  1.54  0.49   7.5   8.3   4.3 0.060   6.3   -99   1.0   -99
    20     A 0.085 0.155 0.383 1.000  2.59  1.54  0.49   7.5   8.3   4.3 0.060   6.3   -99   1.0   -99
    40     B 0.122 0.190 0.362 0.549  2.59  1.57  0.48  14.5   8.2   6.4 0.060   6.3   -99   1.0   -99
    60     B 0.124 0.170 0.204 0.368  0.12  1.52  0.51  40.9  10.7  49.2 0.040   5.9   -99   0.9   -99
    90     B 0.059 0.079 0.088 0.000  0.06  1.38  0.43  52.9  16.9  80.7 0.040   6.0   -99   0.8   -99
@  SLB  SLPX  SLPT  SLPO  SLCA  SLAL  SLFE  SLMN  SLBS  SLPA  SLPB  SLKE  SLMG  SLNA  SLSU  SLEC
     5   -99   -99   -99   1.5   -99   -99   -99   -99   -99   -99    .1    .3    .5   -99   -99
    20   -99   -99   -99   1.5   -99   -99   -99   -99   -99   -99    .1    .3    .5   -99   -99
    40   -99   -99   -99   1.2   -99   -99   -99   -99   -99   -99    .1    .5    .5   -99   -99
    60   -99   -99   -99   1.6   -99   -99   -99   -99   -99   -99    .1    .7    .5   -99   -99
    90   -99   -99   -99   1.9   -99   -99   -99   -99   -99   -99    .1    .9    .5   -99   -99

*HC_GEN0001  IFPRI       C       180 HarvestChoice HC27, Clay HF180
@SITE        COUNTRY          LAT     LONG SCS Family
 -99         Generic      -00.000  -00.000 Clay Deep (HF)
@ SCOM  SALB  SLU1  SLDR  SLRO  SLNF  SLPF  SMHB  SMPX  SMKE
    BK  0.05  8.00  0.20 85.00  1.00  1.00 SA001 SA001 SA001
@  SLB  SLMH  SLLL  SDUL  SSAT  SRGF  SSKS  SBDM  SLOC  SLCL  SLSI  SLCF  SLNI  SLHW  SLHB  SCEC  SADC
    10     A 0.210 0.390 0.440  1.00  1.00  1.20  1.40 60.00 25.00 -99.0  0.12  6.50 -99.0 -99.0 -99.0
    30    AB 0.230 0.410 0.467  0.65  0.80  1.20  0.87 60.00 25.00 -99.0  0.07  6.50 -99.0 -99.0 -99.0
    60    BA 0.260 0.415 0.467  0.38  0.60  1.20  0.69 60.00 25.00 -99.0  0.06  6.50 -99.0 -99.0 -99.0
    90     B 0.290 0.420 0.470  0.22  0.50  1.20  0.63 60.00 25.00 -99.0  0.05  6.50 -99.0 -99.0 -99.0
   120   BC1 0.320 0.425 0.475  0.12  0.40  1.20  0.60 60.00 25.00 -99.0  0.05  6.50 -99.0 -99.0 -99.0
   150   BC2 0.360 0.430 0.480  0.08  0.30  1.20  0.53 60.00 25.00 -99.0  0.04  6.50 -99.0 -99.0 -99.0
   180     C 0.400 0.430 0.480  0.03  0.20  1.20  0.30 60.00 25.00 -99.0  0.03  6.50 -99.0 -99.0 -99.0
@  SLB  SLPX  SLPT  SLPO CACO3  SLAL  SLFE  SLMN  SLBS  SLPA  SLPB  SLKE  SLMG  SLNA  SLSU  SLEC  SLCA
    10 -99.0 -99.0 -99.0 -99.0 -99.0 -99.0 -99.0 -99.0 -99.0 -99.0 -99.0 -99.0 -99.0 -99.0 -99.0 -99.0
    30 -99.0 -99.0 -99.0 -99.0 -99.0 -99.0 -99.0 -99.0 -99.0 -99.0 -99.0 -99.0 -99.0 -99.0 -99.0 -99.0
    60 -99.0 -99.0 -99.0 -99.0 -99.0 -99.0 -99.0 -99.0 -99.0 -99.0 -99.0 -99.0 -99.0 -99.0 -99.0 -99.0
    90 -99.0 -99.0 -99.0 -99.0 -99.0 -99.0 -99.0 -99.0 -99.0 -99.0 -99.0 -99.0 -99.0 -99.0 -99.0 -99.0
   120 -99.0 -99.0 -99.0 -99.0 -99.0 -99.0 -99.0 -99.0 -99.0 -99.0 -99.0 -99.0 -99.0 -99.0 -99.0 -99.0
   150 -99.0 -99.0 -99.0 -99.0 -99.0 -99.0 -99.0 -99.0 -99.0 -99.0 -99.0 -99.0 -99.0 -99.0 -99.0 -99.0
   180 -99.0 -99.0 -99.0 -99.0 -99.0 -99.0 -99.0 -99.0 -99.0 -99.0 -99.0 -99.0 -99.0 -99.0 -99.0 -99.0

*IRRI200701  IRRI      -99       211 Nanjing - use default shallow silty clay for base info.
@SITE        COUNTRY          LAT     LONG SCS FAMILY
 Nanjing     China
@ SCOM  SALB  SLU1  SLDR  SLRO  SLNF  SLPF  SMHB  SMPX  SMKE
   -99  0.11   -99   0.1    89  1.00  1.00   -99   -99   -99
@  SLB  SLMH  SLLL  SDUL  SSAT  SRGF  SSKS  SBDM  SLOC  SLCL  SLSI  SLCF  SLNI  SLHW  SLHB  SCEC  SADC
    10   -99 0.228 0.385 0.463  1.00 0.014  1.28  1.65   -99   -99   -99  0.10   6.5   -99   -99   -99
    20   -99 0.228 0.385 0.459  0.90 0.090  1.28  1.23   -99   -99   -99  0.08   6.5   -99   -99   -99
    30   -99 0.228 0.385 0.459  0.64 0.725  1.68  0.78   -99   -99   -99  0.05   6.5   -99   -99   -99
    40   -99 0.249 0.406 0.461  0.53 0.725  1.68  0.78   -99   -99   -99  0.05   6.5   -99   -99   -99
    50   -99 0.249 0.406 0.461  0.43 0.040  1.68  0.78   -99   -99   -99  0.05   6.5   -99   -99   -99
    60   -99 0.249 0.406 0.461  0.35 0.105  1.68  0.39   -99   -99   -99  0.02   6.5   -99   -99   -99
@  SLB  SLPX  SLPT  SLPO CACO3  SLAL  SLFE  SLMN  SLBS  SLPA  SLPB  SLKE  SLMG  SLNA  SLSU  SLEC  SLCA
    10 -99.0 -99.0 -99.0 -99.0 -99.0 -99.0 -99.0 -99.0 -99.0 -99.0   -99  -99. -99.0 -99.0 -99.0  -99.
    20 -99.0 -99.0 -99.0 -99.0 -99.0 -99.0 -99.0 -99.0 -99.0 -99.0   -99  -99. -99.0 -99.0 -99.0  -99.
    30 -99.0 -99.0 -99.0 -99.0 -99.0 -99.0 -99.0 -99.0 -99.0 -99.0   -99  -99. -99.0 -99.0 -99.0  -99.
    40 -99.0 -99.0 -99.0 -99.0 -99.0 -99.0 -99.0 -99.0 -99.0 -99.0   -99  -99. -99.0 -99.0 -99.0  -99.
    50 -99.0 -99.0 -99.0 -99.0 -99.0 -99.0 -99.0 -99.0 -99.0 -99.0   -99  -99. -99.0 -99.0 -99.0  -99.
    60 -99.0 -99.0 -99.0 -99.0 -99.0 -99.0 -99.0 -99.0 -99.0 -99.0   -99  -99. -99.0 -99.0 -99.0  -99.
@  SLB ALFVG   MVG   NVG WCRES
    10 0.001 0.143 1.167 0.219
    20 0.011 0.143 1.167 0.204
    30 0.133 0.095 1.105 0.172
    40 0.133 0.122 1.139 0.172
    50 0.047 0.081 1.089 0.138
    60 0.127 0.084 1.091 0.172

!Shizukuishi.sol
!Data obtained from Tao Li

*IUBF950107  AMES, IA              0 Clarion, well drained
@SITE        COUNTRY          LAT     LONG SCS FAMILY
 -99         -99             42.0    -99.0
@ SCOM  SALB  SLU1  SLDR  SLRO  SLNF  SLPF  SMHB  SMPX  SMKE
   -99   .16   9.8   .55  91.0   .90  1.00 IB001 IB001 IB001
@  SLB  SLMH  SLLL  SDUL  SSAT  SRGF  SSKS  SBDM  SLOC  SLCL  SLSI  SLCF  SLNI  SLHW  SLHB  SCEC
     5   -99  .181  .239  .314 1.000   .81  1.52  2.03  18.0  31.0   2.5 -99.0   6.4 -99.0 -99.0
    15   -99  .177  .241  .323 1.000  2.86  1.47  2.03  18.0  31.0   2.5 -99.0   6.4 -99.0 -99.0
    25   -99  .192  .266  .350  .900  5.28  1.39  2.03  22.0  31.0   2.5 -99.0   6.4 -99.0 -99.0
    30   -99  .204  .261  .325  .800  3.71  1.53  2.03  22.0  31.0   2.5 -99.0   6.4 -99.0 -99.0
    50   -99  .150  .262  .334  .600  4.99  1.48   .44  21.0  28.0   5.0 -99.0   6.7 -99.0 -99.0
    70   -99  .150  .262  .329  .400  7.08  1.51   .44  21.0  28.0   7.5 -99.0   6.7 -99.0 -99.0
   110   -99  .127  .247  .322  .300 10.38  1.50   .15  17.0  32.0   7.5 -99.0   7.9 -99.0 -99.0
*KZ02422280    KAZ        Loam   200    Almaty
@SITE        COUNTRY          LAT     LONG SCS Family
 -99              KZ       43.292   76.709    HC_GEN0011
@ SCOM  SALB  SLU1  SLDR  SLRO  SLNF  SLPF  SMHB  SMPX  SMKE
    BK  0.10  6.00  0.50 75.00  1.00  1.00 SA001 SA001 SA001
@  SLB  SLMH  SLLL  SDUL  SSAT  SRGF  SSKS  SBDM  SLOC  SLCL  SLSI  SLCF  SLNI  SLHW  SLHB  SCEC  SADC
     5 A     0.113 0.259 0.395  1.00  0.75  1.32  1.58 18.28 48.65 -99.0  0.12  7.91 -99.0  21.1 -99.0
    15 A     0.124 0.271 0.399  0.85  0.63  1.34  1.34 20.15 47.88 -99.0  0.09  7.98 -99.0  18.5 -99.0
    30 AB    0.137 0.284 0.405  0.70  0.51  1.37  1.02 22.53 46.91 -99.0  0.07  8.08 -99.0  17.9 -99.0
    60 BA    0.151 0.298 0.411  0.50  0.41  1.42  0.66 24.94 45.65 -99.0  0.06  8.19 -99.0  18.8 -99.0
   100 B     0.151 0.297 0.411  0.38  0.42  1.48  0.37 24.91 45.07 -99.0  0.05  8.32 -99.0  18.9 -99.0
   200 BC    0.141 0.284 0.405  0.05  0.51  1.53  0.21 23.13 44.95 -99.0  0.05  8.50 -99.0  18.8 -99.0

*KZ01826030    KAZ        Loam   200    ISRIC soilgrids + HC27
@SITE        COUNTRY          LAT     LONG SCS Family
 -99              KZ       54.792   69.208    HC_GEN0011
@ SCOM  SALB  SLU1  SLDR  SLRO  SLNF  SLPF  SMHB  SMPX  SMKE
    BK  0.10  6.00  0.50 75.00  1.00  1.00 SA001 SA001 SA001
@  SLB  SLMH  SLLL  SDUL  SSAT  SRGF  SSKS  SBDM  SLOC  SLCL  SLSI  SLCF  SLNI  SLHW  SLHB  SCEC  SADC
     5 A     0.103 0.229 0.390  1.00  1.18  1.28  1.40 16.82 39.45 -99.0  0.12  7.50 -99.0  26.6 -99.0
    15 A     0.113 0.240 0.392  0.85  1.00  1.30  0.87 18.56 38.67 -99.0  0.09  7.57 -99.0  23.3 -99.0
    30 AB    0.127 0.254 0.396  0.70  0.79  1.33  0.69 20.93 37.57 -99.0  0.07  7.66 -99.0  22.5 -99.0
    60 BA    0.141 0.268 0.400  0.50  0.63  1.38  0.63 23.31 36.22 -99.0  0.06  7.78 -99.0  23.5 -99.0
   100 B     0.140 0.266 0.399  0.38  0.65  1.44  0.61 23.21 35.65 -99.0  0.05  7.91 -99.0  23.8 -99.0
   200 BC    0.130 0.253 0.395  0.05  0.78  1.50  0.60 21.46 35.40 -99.0  0.05  8.10 -99.0  23.7 -99.0

*QUKI100004  -99         C       100 Kingaroy
@SITE        COUNTRY          LAT     LONG SCS FAMILY
 Kingaroy Australia           -99     -99  Brown Ferrasol
@ SCOM  SALB  SLU1  SLDR  SLRO  SLNF  SLPF  SMHB  SMPX  SMKE DIFAC
    BL   .12     6    .3    73     1     1  IB00  IB00  IB00  0.45
@  SLB  SLMH  SLLL  SDUL  SSAT  SRGF  SSKS  SBDM  SLOC  SLCL  SLSI  SLCF  SLNI  SLHW  SLHB  SCEC  SADC   !  SSKS
     5   -99   .18   .31   .49     1    .1  1.23   1.5    50    17    39   .15   7.3   -99    71   -99   !    .1
    10   -99   .18   .31   .49     1    .1  1.23   1.5    50    17    39   .15   7.2   -99    71   -99   !    .1
    20   -99   .19   .29   .51    .9    .1  1.30   1.4    55    14    39   .14   7.5   -99    71   -99   !    .1
    30   -99   .20   .28   .51    .8    .1  1.33   1.1    60    10    39   .11   7.9   -99    71   -99   !    .1
    40   -99   .21   .32   .52    .6    .1  1.33    .5    60    10    39   .05   8.1   -99    71   -99   !    .1
    50   -99   .21   .29   .55    .4   .05  1.33    .3    60    10    39   .03   8.2   -99    71   -99   !   .05
    60   -99   .22   .29   .55    .3   .03  1.33    .1    60    10    39   .01   8.3   -99    65   -99   !   .03
    70   -99   .22   .29   .55   .06   .01  1.33    .1    60    10    39   .01   8.5   -99    65   -99   !   .01
    80   -99   .22   .29   .55   .03   .01  1.33    .1    60    10    39   .01   8.5   -99    65   -99   !   .01
    90   -99   .22   .29   .55   .01   .01  1.31    .1    28    33    39   .01   8.5   -99    65   -99   !   .01

*UFGA950002  Alachua county       203  Millhopper Fine Sand (Compacted layer)
@SITE        COUNTRY          LAT     LONG SCS FAMILY
-99         -99               -99      -99 Loamy, siliceous hyperthermic Grossarenic Paleudults
@ SCOM  SALB  SLU1  SLDR  SLRO  SLNF  SLPF  SMHB  SMPX  SMKE
  -99  0.18   5.0  0.50  66.0  1.00  0.92 IB001 IB001 IB001
@  SLB  SLMH  SLLL  SDUL  SSAT  SRGF  SSKS  SBDM  SLOC  SLCL  SLSI  SLCF  SLNI  SLHW  SLHB  SCEC  SADC
   15   -99 0.024 0.161 0.487 1.000   9.3  1.36  .73    2.1   6.3     0   .08   5.2   -99   5.4   -99
   33   -99 0.016 0.104 0.407 0.300  24.4  1.57  .34    2.3   4.1     0   .03   5.4   -99   2.9   -99
   89   -99 0.011 0.113 0.408 0.000  .001  1.57  .19    2.4   3.3     0   .02   5.2   -99   1.9   -99
  147   -99 0.021 0.080 0.385 0.050  32.9  1.63  .07    1.9   3.3     9   .01   5.3   -99   1.1   -99
  157   -99 0.022 0.101 0.404 0.000  19.8  1.58  .07    4.1   3.9     0   .01   5.2   -99   2.0   -99
  175   -99 0.070 0.196 0.374 0.000   4.0  1.66  .10   16.4   6.1     0   .01   4.9   -99   6.0   -99
  203   -99 0.105 0.248 0.351 0.000   0.9  1.72  .12   28.6   8.6     0   .01   5.0   -99  10.4   -99

*SUMO930001  Morogoro,TZ SACLLO 100  ALFSOL, ISOHYPERTHEMIC,  TYPIC TROPUSTIC
@SITE        COUNTRY          LAT     LONG SCS FAMILY
 MOROGRORO   TANZANIA        -6.5     37.3 DARK GRAYISH BROWN  SAND CLAY LOAM ISOHYPERTHEMIC,TYPIC TROPUSTIC
@ SCOM  SALB  SLU1  SLDR  SLRO  SLNF  SLPF  SMHB  SMPX  SMKE  SGRP
 2.5YR  0.13   6.0  0.35  84.0  1.00  0.88 IB001 IB002 IB001 IB003
@  SLB  SLMH  SLLL  SDUL  SSAT  SRGF  SSKS  SBDM  SLOC  SLCL  SLSI  SLCF  SLNI  SLHW  SLHB  SCEC  SADC
    10   Ap  0.081 0.217 0.434 1.000  5.01  1.40  2.27  55.0  24.0  21.0  0.09  5.43  5.30  5.43
    20   Ap  0.097 0.233 0.382 0.819  6.98  1.55  2.27  57.0  23.0  20.0  0.09  5.09  5.20  5.11
    30   AB  0.102 0.238 0.382 0.268  7.08  1.55  1.15  59.0  18.0  23.0  0.08  4.25  5.20  3.74
    40   B1  0.101 0.237 0.382 0.268  5.01  1.55  1.64  58.0  24.0  22.0  0.07  5.03  5.00  3.63
    50   B1  0.082 0.218 0.399 0.138  5.01  1.50  1.80  58.0  24.0  18.0  0.07  5.03  5.00  3.33
    60   B2  0.129 0.265 0.295 0.128  5.01  1.50  1.80  58.0  23.0  19.0  0.07  5.04  5.00  3.04
    70   B2  0.096 0.232 0.382 0.128  5.02  1.55  1.60  59.0  20.0  21.0  0.09  5.13  5.05  2.44
    80   B2  0.056 0.192 0.451 0.128  6.99  1.35  1.60  48.0  42.0  10.0  0.06  4.83  5.00  2.34
    90   B3  0.056 0.192 0.451 0.100  6.25  1.35  0.55  48.0  42.0  10.0  0.05  4.80  5.10  2.14
   100   B3  0.056 0.192 0.451 0.100  6.84  1.35  0.55  48.0  42.0  10.0  0.05  4.61  5.10  1.82
!     PHOSPHORUS DATA
@  SLB  SLPX  SLPT  SLPO CACO3  SLAL  SLFE  SLMN  SLBS  SLPA  SLPB  SLKE  SLMG  SLNA  SLSU  SLEC   SLCA
    10  6.12   360   280  2.03  1.10  1.20   -99   -99   -99   -99  0.60  2.80  0.71   -99   -99
    20  5.85   360   280  2.01  1.10  1.20   -99   -99   -99   -99  0.60  2.50  0.71   -99   -99
    30  3.97   309    30  1.94  0.80  1.60   -99   -99   -99   -99  0.30  1.50  0.61   -99   -99
    40  2.91   309    30  1.93  0.80  1.10   -99   -99   -99   -99  0.40  1.30  0.61   -99   -99
    50  2.02   309    30  1.93  0.30  1.10   -99   -99   -99   -99  0.30  1.10  0.61   -99   -99
    60  1.47   309    30  1.64  0.30  1.20   -99   -99   -99   -99  0.30  1.10  0.61   -99   -99
    70  2.05   309    30  1.04  0.30  1.20   -99   -99   -99   -99  0.30  1.10  0.61   -99   -99
    80  1.64   143    40  0.94  0.30  1.10   -99   -99   -99   -99  0.30  1.10  0.65   -99   -99
    90  1.71   143    40  0.84  0.30  1.10   -99   -99   -99   -99  0.30  1.00  0.65   -99   -99
   100  1.54   133    40  0.52  0.30  1.00   -99   -99   -99   -99  0.30  1.00  0.65   -99   -99

!    10    Ap 0.091 0.227 0.382 1.000 16.56  1.55  1.13  60.0  20.0  20.0  0.06  4.56   -99  8.97
! Values of SALB, SLU1, SLDR, SLRO, SLPF, SSKS, were estimated by
! Cornel L. Rweyemamu as described by Ritchie et al. (1990).

*SUMO930002  MOROGORO, TZ SALO 100   OXISOL ISOHYPERTHEMIC, ARIDIC  TROPUSTIC
@SITE        COUNTRY          LAT     LONG SCS FAMILY
 MOROGORO    TANZANIA        -6.5     37.3 REDDISH BROWN SAND LOAM
@ SCOM  SALB  SLU1  SLDR  SLRO  SLNF  SLPF  SMHB  SMPX  SMKE  SRGP
 2.5YR  0.12   6.0  0.50  84.0  1.00  0.80 IB001 IB002 IB001 IB003
@  SLB  SLMH  SLLL  SDUL  SSAT  SRGF  SSKS  SBDM  SLOC  SLCL  SLSI  SLCF  SLNI  SLHW  SLHB  SCEC  SADC
    10    Ap 0.091 0.227 0.382 1.000 16.56  1.55  1.13  60.0  20.0  20.0  0.06  4.56   -99  8.97
    20    Ap 0.066 0.202 0.382 0.841 16.56  1.55  1.13  65.0  30.0  15.0  0.06  4.50   -99  8.89
    30     E 0.104 0.240 0.399 0.499 16.16  1.50  0.76  65.0  15.0  30.0  0.05  5.38   -99  5.65
    40    AB 0.125 0.261 0.365 0.338 16.56  1.60  0.76  53.0  13.0  24.0  0.06  5.50   -99  5.31
    50    B1 0.088 0.224 0.382 0.166  6.98  1.55  0.70  65.0  13.0  22.0  0.05  5.69   -99  5.44
    60    B2 0.165 0.301 0.347 0.134  5.98  1.65  0.70  55.0  10.0  35.0  0.04  4.59   -99  3.77
    70    B2 0.053 0.189 0.417 0.019  5.98  1.45  0.40  68.0  15.0  17.0  0.04  4.23   -99  3.31
    80    B2 0.159 0.295 0.417 0.016 16.55  1.45  0.33  40.0  24.0  36.0  0.05  5.14   -99  2.03
    90    B3 0.154 0.290 0.434 0.012  5.99  1.40  0.33  35.0  30.0  35.0  0.05  4.46   -99  1.91
   100    B3 0.089 0.225 0.472 0.003  5.99  1.29  0.30  38.0  22.0  20.0  0.03  4.61   -99  1.94
!     PHOSPHORUS DATA
@  SLB  SLPX  SLPT  SLPO CACO3  SLAL  SLFE  SLMN  SLBS  SLPA  SLPB  SLKE  SLMG  SLNA  SLSU  SLEC   SLCA
    10  5.42   270 120.0  1.77   1.5  3.20   -99   -99   -99   -99   1.6  5.60  0.19   -99   -99
    20  5.03   270 120.0  1.59   1.5  3.20   -99   -99   -99   -99   1.6  5.70  0.19   -99   -99
    30  4.33   242 120.0  1.45   1.4  3.00   -99   -99   -99   -99   1.4  2.80  0.22   -99   -99
    40  4.01   170  80.0  1.31   1.3  2.87   -99   -99   -99   -99   1.4  2.60  0.22   -99   -99
    50  3.31   170  80.0  1.24   1.3  2.86   -99   -99   -99   -99   1.4  2.80  0.22   -99   -99
    60  3.14   170  80.0  1.07   1.3  2.20   -99   -99   -99   -99   0.4  2.30  0.22   -99   -99
    70  2.89   170  80.0  0.61   1.3  2.20   -99   -99   -99   -99   0.4  2.30  0.16   -99   -99
    80  3.33    75  50.0  0.33   1.3  1.29   -99   -99   -99   -99   0.4  1.30  0.16   -99   -99
    90  2.42    75  50.0  0.34   1.3  1.87   -99   -99   -99   -99   0.4  1.20  0.16   -99   -99
   100  2.41    75  50.0  0.34   1.2  1.10   -99   -99   -99   -99   0.4  1.20  0.16   -99   -99

!CHP test of andisol names, SLCA, zero OC, etc.
*WI_SNET011  WISE        CL      130 WISE DATABASE, SOIL ET011
@SITE        COUNTRY          LAT     LONG SCS Family
 -99         Ethiopia       9.017   40.167 Haplic Solonetz (SNh)
@ SCOM  SALB  SLU1  SLDR  SLRO  SLNF  SLPF  SMHB  SMPX  SMKE
    BN  0.13 10.32  0.40 75.00  1.00  1.00 SA001 SA001 SA001
@  SLB  SLMH  SLLL  SDUL  SSAT  SRGF  SSKS  SBDM  SLOC  SLCL  SLSI  SLCF  SLNI  SLHW  SLHB  SCEC  SADC
    30     - 0.162 0.298 0.475  0.74  1.31  1.35  0.19 29.00 44.00 -99.0  0.02  8.10 -99.0 28.20 -99.0
    40     - 0.214 0.365 0.509  0.50  0.60  1.26 -99.0 41.00 37.00 -99.0 -99.0 -99.0 -99.0 -99.0 -99.0
    55     - 0.226 0.382 0.510  0.39  0.45  1.26 -99.0 44.00 37.00 -99.0 -99.0 -99.0 -99.0 -99.0 -99.0
    84     - 0.124 0.286 0.436  0.25  1.14  1.43 -99.0 31.00 19.00 -99.0 -99.0 -99.0 -99.0 -99.0 -99.0
   130     - 0.241 0.374 0.512  0.12  0.53  1.25 -99.0 39.00 39.00 -99.0 -99.0 -99.0 -99.0 -99.0 -99.0
@  SLB  SLPX  SLPT  SLPO CACO3  SLAL  SLFE  SLMN  SLBS  SLPA  SLPB  SLKE  SLMG  SLNA  SLSU  SLEC  SLCA
    30 -99.0   4.0 -99.0   6.5 -99.0 -99.0 -99.0 100.0 -99.0 -99.0   1.2   2.4   9.1 -99.0  15.6  53.8
    40 -99.0 -99.0 -99.0 -99.0 -99.0 -99.0 -99.0 100.0 -99.0 -99.0 -99.0 -99.0 -99.0 -99.0 -99.0 -99.0
    55 -99.0 -99.0 -99.0 -99.0 -99.0 -99.0 -99.0 100.0 -99.0 -99.0 -99.0 -99.0 -99.0 -99.0 -99.0 -99.0
    84 -99.0 -99.0 -99.0 -99.0 -99.0 -99.0 -99.0 100.0 -99.0 -99.0 -99.0 -99.0 -99.0 -99.0 -99.0 -99.0
   130 -99.0 -99.0 -99.0 -99.0 -99.0 -99.0 -99.0 100.0 -99.0 -99.0 -99.0 -99.0 -99.0 -99.0 -99.0 -99.0

*WI_VRIN047  WISE        SL      103 WISE DATABASE, SOIL IN047
@SITE        COUNTRY          LAT     LONG SCS Family
 -99         India         17.667   78.083 Calcic Vertisol (VRk)
@ SCOM  SALB  SLU1  SLDR  SLRO  SLNF  SLPF  SMHB  SMPX  SMKE
    BN  0.13  9.60  0.40 75.00  1.00  1.00 SA001 SA001 SA001
@  SLB  SLMH  SLLL  SDUL  SSAT  SRGF  SSKS  SBDM  SLOC  SLCL  SLSI  SLCF  SLNI  SLHW  SLHB  SCEC  SADC
     2   Ap1 0.124 0.234 0.409  1.00  2.40  1.47  0.71 20.00 22.00 78.00  0.07  8.00 -99.0  35.7 -99.0
    19   Ap2 0.124 0.234 0.404  1.00  2.27  1.49  0.59 20.00 22.00 78.00  0.06  8.10 -99.0  38.3 -99.0
    38   A12 0.116 0.247 0.399  0.57  1.69  1.50  0.48 20.00 22.00 78.00  0.05  8.10 -99.0  41.2 -99.0
    66   A13 0.121 0.253 0.398  0.35  1.51  1.50  0.47 20.00 22.00 78.00  0.05  8.10 -99.0  42.9 -99.0
    86   A14 0.121 0.253 0.398  0.22  1.51  1.50  0.47 20.00 22.00 78.00  0.05  8.20 -99.0  43.2 -99.0
   103  ACca 0.134 0.254 0.395  0.15  1.42  1.51  0.40 20.00 22.00 78.00  0.04  8.30 -99.0  34.8 -99.0
@  SLB  SLPX  SLPT  SLPO CACO3  SLAL  SLFE  SLMN  SLBS  SLPA  SLPB  SLKE  SLMG  SLNA  SLSU  SLEC  SLCA
     2 -99.0 -99.0 -99.0   2.2 -99.0 -99.0 -99.0 100.0 -99.0 -99.0   0.1   1.0   0.2 -99.0 -99.0  34.4