*SOILS: Description of soil file

! Example comment

*EX_PROFILE  -99         LS      200 -99
@SITE        COUNTRY          LAT     LONG SCS FAMILY
-99          Example        0.000    0.000 Example Family
@ SCOM  SALB  SLU1  SLDR  SLRO  SLNF  SLPF  SMHB  SMPX  SMKE
    BN  0.13  7.85  0.60  73.0  1.00  1.00 SA001 SA001 SA001
@  SLB  SLMH  SLLL  SDUL  SSAT  SRGF  SSKS  SBDM  SLOC  SLCL  SLSI  SLCF  SLNI  SLHW  SLHB  SCEC  SADC
    21    Ap 0.033 0.124 0.387 0.810 17.46  1.54 0.310   7.0  12.0   -99  0.02  5.50  4.40  1.40   -99
    50   Bt1 0.218 0.300 0.350 0.490 0.160  1.67 0.090  21.0   8.0   -99  0.01  5.80  4.80  1.90   -99
    78   Bt2 0.176 0.279 0.354 0.280 0.360  1.66 0.080  34.0  11.0   -99  0.01  5.80  5.00  2.70   -99
   106   Bt3 0.171 0.287 0.369 0.160 0.390  1.62 0.030  39.0  13.0   -99  0.01  6.10  5.20  3.40   -99
   153   Bt4 0.195 0.301 0.415 0.080 0.640  1.49 0.030  40.0  14.0   -99  0.01  6.20  5.40  3.50   -99
   200   Bt5 0.191 0.300 0.421 0.030 0.620  1.50 0.030  42.0  14.0   -99  0.01  5.60  4.90  3.40   -99
@  SLB  SLPX  SLPT  SLPO CACO3  SLAL  SLFE  SLMN     S  SLPA  SLPB  SLKE  SLMG  SLNA  SLSU  SLEC  SLCA
    21   -99   -99   -99   -99  0.10   -99   -99   86.   -99   -99  0.10  0.30  0.10   -99   -99  0.70
    50   -99   -99   -99   -99   -99   -99   -99   95.   -99   -99  0.20  0.30  0.10   -99   -99  1.20
    78   -99   -99   -99   -99   -99   -99   -99   96.   -99   -99  0.10  0.90  0.10   -99   -99  1.50
   106   -99   -99   -99   -99   -99   -99   -99   88.   -99   -99  0.20  1.30  0.10   -99   -99  1.40
   153   -99   -99   -99   -99   -99   -99   -99   89.   -99   -99  0.40  1.10  0.10   -99   -99  1.50
   200   -99   -99   -99   -99   -99   -99   -99   74.   -99   -99  0.40  0.80  0.10   -99   -99  1.20
